50
Coordinates from ORCA-job CURCUMIN-OPT-FREQ-Prod-1-wB97XM-V-6-311G-D-363
  C   2.13371875819543      1.03366609880405      0.97415965665255
  H   1.73249371818381      2.04339905174877      0.99445702911743
  C   1.44500458081332      0.04676806866453      1.55988173244686
  H   1.80204429797443     -0.97749670275901      1.60837492212568
  C   0.13390714457521      0.23956942436939      2.21444199835436
  O   -0.44781144768031     -0.71436078502552      2.69701496640274
  C   3.43757673634018      0.92786473003431      0.30315078581378
  C   4.26792338963464      2.04997238922476      0.27992688781396
  C   3.95016144457023     -0.22348660145484     -0.30211984070825
  C   5.53182283727716      2.01638367871693     -0.29320844458839
  H   3.91438522428376      2.97032513602269      0.73214180719177
  C   5.19734040081300     -0.29358066050496     -0.89689099665537
  H   4.91554217426307     -0.88075169537268      3.40707355929097
  C   6.00755209772376      0.85211259038203     -0.88607881484580
  H   6.15419107656169      2.90597916535926     -0.29490160646385
  O   7.21078182257307      0.74702351585298     -1.49116909433030
  H   7.68711910462530      1.58455133578257     -1.43735535691804
  O   5.57732387678189     -1.43347677613871     -1.53778487333823
  C   6.57266941806899     -2.19333876931016     -0.82660589594681
  H   6.18816640308586     -2.48571744885974      0.15233176280227
  H   6.75975600869951     -3.07827399172115     -1.43042015939163
  H   7.49125704254034     -1.61536691031880     -0.71854368656327
  C   -2.97943137655948      0.59431312813903      1.02459243332435
  H   -2.62182699328128      0.20138913541197      1.97340918728828
  C   -2.26776496793078      1.54945013093620      0.40632849232421
  H   -2.56850651891772      1.96565247534019     -0.55096709382688
  C   -1.01565981471301      2.11373270701433      0.93036699721147
  O   -0.40404387575454      2.95615001724563      0.29524427163903
  C   -4.21824231518046     -0.01906817119553      0.54107759693722
  C   -4.81466847472594     -1.02446830171381      1.30435345598870
  C   -4.83848252383208      0.36058773097149     -0.65918046212973
  C   -5.98642477441761     -1.64317576035476      0.88571936585221
  H   -4.35320732333850     -1.33381326499184      2.23693103528162
  C   -6.00048298668245     -0.24903967256984     -1.08585854590575
  H   -4.42108849105057      1.13540395738895     -1.29361250068405
  C   -6.58613042594676     -1.26605438610549     -0.31077282315993
  H   -6.43781167832184     -2.42950165349509      1.48402980393582
  O   -7.71884124219811     -1.83456308872213     -0.79210543192940
  H   -8.03177267131264     -2.51459175187253     -0.18356253335925
  O   -6.56000914960874      0.11275949766844     -2.28618566283957
  C   -7.74354688694473      0.90696986430137     -2.14529343152462
  H   -7.51957475096521      1.83213455142917     -1.60598438123576
  H   -8.07649860079525      1.14419917545423     -3.15401785896601
  H   -8.52616629771874      0.35421867306571     -1.62180464472496
  C   -0.47845152903671      1.63506646745258      2.27972733801843
  H   -1.27580792422743      1.60161347036844      3.02262506113023
  H   0.26674055232837      2.36283705431826      2.60316351702713
  O   3.49123973786744     -2.41141294778357      0.25415818744590
  O   2.17284248521918     -1.42029577772021     -1.13693265877777
  N   3.13896870814128     -1.45069810347785     -0.40473605260331
