50
Coordinates from ORCA-job CURCUMIN-OPT-FREQ-Reag-1-wB97XM-V-6-311G-D-363
  C   2.09447637782015      1.05243696196078      1.17149660509758
  H   1.69945824266861      2.06507426055081      1.16314791620233
  C   1.36748744343704      0.06580607710756      1.74230955333079
  H   1.70562215579187     -0.96530742302737      1.75999413211916
  C   0.05655674489241      0.27161018976139      2.37133780017617
  O   -0.54832514512588     -0.67185113523014      2.85457361089521
  C   3.37909900191381      0.90492063993122      0.54241024761131
  C   4.04249283098216      2.00620031473629      0.04170863497130
  C   4.02419419759175     -0.44053520076424      0.41736438329786
  C   5.33487525768549      1.92329805670050     -0.47896981312533
  H   3.55917745332841      2.97659386884722      0.09325025565094
  C   5.43070755551196     -0.44553998389178     -0.07014401092380
  H   3.93044572615878     -1.04641409229644      1.32195521157595
  C   6.04558613522041      0.69996595435875     -0.49845689388530
  H   5.83018230042163      2.81819211639962     -0.84193779897550
  O   7.34034157204120      0.64238785854176     -0.91865593790671
  H   7.63764080590776      1.52138269112002     -1.18067179777217
  O   5.94471563235183     -1.69435388115516     -0.06305568949862
  C   6.77551826419291     -2.10505795373417     -1.16455311794696
  H   7.78696226897957     -1.72060705471205     -1.05622511940677
  H   6.77680083793839     -3.19211959682834     -1.13321606979256
  H   6.34260202598800     -1.75935967166194     -2.10510158811900
  C   -3.00557294452336      0.61631941206589      1.08618124914965
  H   -2.67952992278106      0.23210078766964      2.04973296703691
  C   -2.27717961035922      1.56988756448725      0.48560357716110
  H   -2.54638415677689      1.97695927183679     -0.48501006136536
  C   -1.04712195285940      2.14643979359369      1.04879608414297
  O   -0.42440777070209      2.99336491772521      0.42987024127919
  C   -4.22258757161368     -0.00786436742741      0.56170939754407
  C   -4.83454451428729     -1.02032827574982      1.30300141747605
  C   -4.80477365264024      0.36654148241513     -0.65896894447261
  C   -5.98349776211825     -1.65219762163187      0.84254796004829
  H   -4.40270421747086     -1.32533305405972      2.25109967896158
  C   -5.94374072515028     -0.25601414932997     -1.12711862658797
  H   -4.37458833544487      1.14734785911950     -1.27727757049776
  C   -6.54422303442141     -1.28123690870694     -0.37461877099226
  H   -6.44659547609548     -2.44472857275136      1.42359358086729
  O   -7.65168549904978     -1.86293417232423     -0.89773147480914
  H   -7.97624028439590     -2.55058369932670     -0.30408376592209
  O   -6.46450639056438      0.10065584090640     -2.34634524143278
  C   -7.66206578201631      0.88001495761726     -2.24695123959095
  H   -7.46781744360705      1.80899458775338     -1.70271988392051
  H   -7.96410534790641      1.11092003584181     -3.26682147296981
  H   -8.45470862110354      0.31834752718986     -1.74864429250554
  C   -0.54768468613710      1.67410488604480      2.41340534906044
  H   -1.36453366828923      1.65041641157829      3.13544771974841
  H   0.19302289972865      2.39981298100780      2.75136029794313
  O   2.53851706045319     -2.19285663510783     -0.21691798337206
  O   3.32664713698323     -0.95316849474923     -1.79319210341004
  N   3.21956458745071     -1.27871536240196     -0.62969960214610
