50
Coordinates from ORCA-job CURCUMIN-OPT-FREQ-TS-M06-2X-6-311G-D-363
  C   2.19832580444582      1.25179128697879      0.62511040750044
  H   1.80504374241368      2.23584655023250      0.38523826184778
  C   1.49680405409516      0.43612456035622      1.42330263218903
  H   1.85484638025583     -0.54567244863932      1.72059189501072
  C   0.17888114642659      0.77680917330985      1.99617562445591
  O   -0.40520044188085     -0.02925475499088      2.69673198902702
  C   3.51166143717641      0.97202800296311      0.04236136318056
  C   4.35958964185992      2.03486509254001     -0.24731627073569
  C   4.05109665694712     -0.32485839772962     -0.13102058955206
  C   5.65102548380884      1.83968987264922     -0.72621624125281
  H   4.00212913346635      3.04613081192789     -0.08579903785170
  C   5.30340733647088     -0.54581007294056     -0.71737840946917
  H   4.49217810641576     -0.58186920755684      1.66844523680225
  C   6.13005426618460      0.55564123461141     -0.96628637808274
  H   6.28760200403521      2.69253641047668     -0.94042643324046
  O   7.35281965525109      0.28981349899737     -1.47428860987958
  H   7.82956865040997      1.11166840826618     -1.64337470625964
  O   5.68397565656322     -1.80587301367090     -1.04915512012168
  C   6.59538903437006     -2.40776489975065     -0.10879256192967
  H   6.11349027601731     -2.50449877025356      0.86586447189794
  H   6.82694258552750     -3.39251961137811     -0.50739539864731
  H   7.50715684151936     -1.81442295298196     -0.02760627415001
  C   -2.96044328501222      0.82389350261458      0.79045218611083
  H   -2.59554661797584      0.70119056500765      1.80726892499259
  C   -2.24534638312124      1.56419269724467     -0.07063605747913
  H   -2.54919728205871      1.70681780379493     -1.10376674307316
  C   -0.98332618332176      2.23579104897680      0.27261191717167
  O   -0.36606657393638      2.86197742747095     -0.57218547094871
  C   -4.21104413108120      0.11651614741867      0.50723485732853
  C   -4.80610488496108     -0.62818545723285      1.52732180711847
  C   -4.84481697656047      0.15503840627035     -0.74430971297011
  C   -5.98996779243548     -1.32291575115081      1.31142221976965
  H   -4.33410134202887     -0.67111550724384      2.50396020050086
  C   -6.01900856097382     -0.53364890691685     -0.97061111241311
  H   -4.42960459301787      0.71596072325427     -1.57498958534035
  C   -6.60345961908632     -1.28535816118038      0.06434719654881
  H   -6.44014835132524     -1.90553659182665      2.11004629625746
  O   -7.74948907466147     -1.94935807442247     -0.22420955265430
  H   -8.05564409165596     -2.42874078806135      0.55497611710775
  O   -6.59297358748270     -0.51440362251614     -2.21765714547537
  C   -7.75971533954877      0.31284766614926     -2.29266737104051
  H   -7.50898398946559      1.34838616660623     -2.04421483599425
  H   -8.10947905595305      0.25905807386723     -3.32197684486449
  H   -8.54064156693382     -0.04971102611255     -1.62120340545739
  C   -0.44128313216180      2.13845905543013      1.69919082759595
  H   -1.23602723479724      2.29592613107936      2.42845373544773
  H   0.29883962439438      2.93072553583257      1.81621929614378
  O   3.37783162136800     -2.46103366190757      0.52003248422380
  O   2.23662181999009     -1.43897371180119     -0.99623632428634
  N   3.14291213202456     -1.50637946406186     -0.19165875505974
