50
Coordinates from ORCA-job CURCUMIN-OPT-FREQ-TS2-WB97M-V-6-311+G-D-298
  C   -2.46651052378264      0.35645111319562     -0.25048456002032
  H   -2.01827308183568      0.74219383423469     -1.16373730363203
  C   -1.81259226836807      0.50961670021262      0.91340112667824
  H   -2.21349838610114      0.14934669436730      1.85587173123946
  C   -0.52061882693128      1.18885140449765      1.03411512587148
  O   0.03946974387317      1.32109647542376      2.11118594011027
  C   -3.76317419279860     -0.28878785433182     -0.44996599782890
  C   -4.29286680088904     -0.34211722234680     -1.74194565311872
  C   -4.50047244187932     -0.86031717453362      0.59861326092114
  C   -5.52269301572371     -0.93882217854171     -1.98812029864933
  H   -3.73868673095086      0.09356433997924     -2.56753998520221
  C   -5.72298597840925     -1.45679369581942      0.36401184637750
  H   -4.13849685450039     -0.84619303265199      1.62137986719694
  C   -6.24737794446938     -1.49597396712557     -0.93999719589055
  H   -5.92956794461833     -0.96777097824233     -2.99465780432654
  O   -7.46048249945358     -2.08026111370442     -1.10208496083672
  H   -7.72668515325529     -2.05402232599752     -2.02984149409539
  O   -6.44911414658433     -1.96583060893119      1.41240842131079
  C   -6.41172148755631     -3.39719083919002      1.48881793896223
  H   -5.38475681478857     -3.73907495804495      1.64557740273737
  H   -7.02598502924053     -3.67645261471487      2.34251152865897
  H   -6.81864530402081     -3.84569375041642      0.58033912878223
  C   2.71479781918612      0.33465488176026     -0.01600469701075
  H   1.77483702715797     -0.19908780263376     -0.14507386471872
  C   2.69465787152646      1.67253761832411      0.09335041999398
  H   3.59655954582956      2.25880169498971      0.24322078358171
  C   1.46050523742503      2.46531031814902      0.06141042424572
  O   1.46815213191006      3.67057897382649      0.24062218112238
  C   3.89106565864578     -0.53512134347866      0.02972293805506
  C   3.70653061311387     -1.91719540908090     -0.05437290916653
  C   5.19943035969229     -0.04282439990571      0.14919889992749
  C   4.78747537784505     -2.78882595185508     -0.01166039840962
  H   2.70283306575363     -2.31978993110014     -0.14956499269813
  C   6.28064217233869     -0.90078728155338      0.18935393014512
  H   5.40159509899260      1.02107729845049      0.21647560367650
  C   6.07941582193100     -2.28994737608799      0.11381380043572
  H   4.63177695183455     -3.86219275322623     -0.06885195371989
  O   7.18113746098065     -3.08032444443011      0.17577286610416
  H   6.93339681521056     -4.01133277987663      0.10942658901352
  O   7.54830354310814     -0.39748362123589      0.35132678902663
  C   8.31896479251694     -0.39992282885071     -0.85775854633734
  H   7.84250755134642      0.23599737640626     -1.60929565539518
  H   9.29636096337793      0.00409350655652     -0.60150534790863
  H   8.43050084139171     -1.41449931606887     -1.24555717219157
  C   0.14565815086985      1.75129841007695     -0.20468636422008
  H   0.15591919362623      1.08220823667601     -1.06689973894771
  H   -0.61172479071333      2.64840573715164     -0.59811085337535
  O   -1.46931017142596      3.57599932442603     -0.95578311860008
  O   -2.81933660132693      4.80630657862845      0.05750280623541
  N   -2.00391681986095      3.95671703664391      0.21243951589027
