50
Coordinates from ORCA-job CURCUMIN-OPT-FREQ-Reag-WB97M-V-6-311G-D-298
  C   -2.63813118457115      0.35712598231063     -0.51395952354249
  H   -2.22126099128866      0.70924645060917     -1.45548975696738
  C   -1.93279622347533      0.53731674204869      0.61127568330497
  H   -2.29801343744204      0.21454092060312      1.58213041119737
  C   -0.61125673451814      1.18560414335722      0.65949082947485
  O   -0.03154828422095      1.32939735440555      1.72204569996378
  C   -3.95245944041984     -0.28022869389438     -0.63341793682271
  C   -4.54029707758343     -0.38490786809166     -1.89503996976078
  C   -4.64795547213904     -0.80070477242709      0.46857879869823
  C   -5.78477840551281     -0.98134105885433     -2.05991099223813
  H   -4.02040049348397      0.00813663798290     -2.76324652092656
  C   -5.88664596306325     -1.39020513067294      0.31718757261774
  H   -4.24154822094349     -0.74712524272864      1.47317337849858
  C   -6.46896980015002     -1.48496032864288     -0.95933922444459
  H   -6.23482549066679     -1.05193616710578     -3.04609195817545
  O   -7.69190815113391     -2.06527052066813     -1.03881955094553
  H   -7.99060474598438     -2.08232633143407     -1.95588891865551
  O   -6.56374961682864     -1.84769896647241      1.42030603383675
  C   -6.56525321884326     -3.27526985553969      1.53582164816806
  H   -5.54108049961556     -3.65250566619287      1.61133479275006
  H   -7.10826366023185     -3.50917071834008      2.44965756121331
  H   -7.06745583839882     -3.73660485179652      0.68318862133797
  C   2.56837049495806      0.17138985175502     -0.27317531545173
  H   1.62284992042340     -0.35245778812233     -0.39944769669828
  C   2.57014057949490      1.51125947055563     -0.25012160902840
  H   3.48164679200668      2.08453422124438     -0.10645715598399
  C   1.35879024748012      2.33829378396030     -0.37195247263254
  O   1.42920408200096      3.55104366493151     -0.25911005273543
  C   3.73003807050541     -0.71148063318740     -0.13481746266907
  C   3.53193104108340     -2.09304908237878     -0.14570145929986
  C   5.04098118483273     -0.22981818642733      0.00036867821763
  C   4.60024747973794     -2.97277607618053     -0.01787822384417
  H   2.52687290985606     -2.48967964732344     -0.25128454707013
  C   6.10900167148889     -1.09441694814278      0.12996296069531
  H   5.25667141551910      0.83336057651024      0.01518523392238
  C   5.89433489641882     -2.48405511589390      0.12134637360928
  H   4.43216398992363     -4.04595254899058     -0.02089207335230
  O   6.98455975672664     -3.27888281397293      0.26007491317815
  H   6.72288740233448     -4.20666685083825      0.22393577222400
  O   7.37582467562145     -0.59395575044673      0.30263477279562
  C   8.19118807059033     -0.69825916382752     -0.87011293097779
  H   7.74255632548485     -0.13993133795004     -1.69715221580535
  H   9.15464273572328     -0.26071323184335     -0.61507801343271
  H   8.32837748353326     -1.74195920020894     -1.16017463749843
  C   0.01487459153528      1.68277087907160     -0.63780884734805
  H   0.09344970829965      0.86188845804703     -1.35512520198890
  H   -0.63876858421837      2.43846193160503     -1.07962501194341
  O   -1.54050061363741      4.10845343184933      0.81038175214594
  O   -0.06592076009633      5.50071537422467      1.62274171279920
  N   -0.59026561711192      4.45312267352432      1.43929107959050
