50
Coordinates from ORCA-job CURCUMIN-OPT-FREQ-TS2-WB97M-V-6-311+G-D-298
  C   -2.52038562518846      0.31790221313096     -0.33657290046267
  H   -2.11439494811319      0.79720954877657     -1.22466438782222
  C   -1.80398538118520      0.32424860260877      0.79770108041211
  H   -2.16166333092333     -0.15774330359649      1.70291761793566
  C   -0.46578151067010      0.92446250433647      0.94155513539486
  O   0.19031979399380      0.74423512198766      1.97257553466364
  C   -3.83715246888151     -0.29376722297127     -0.53752624865036
  C   -4.43844180084688     -0.19326314982119     -1.79427943385902
  C   -4.52486242498029     -0.97808312855166      0.47579639411433
  C   -5.68878157370892     -0.74806035149178     -2.03887818298222
  H   -3.92469852915092      0.33075480880798     -2.59429030882485
  C   -5.76784611823259     -1.53332455935811      0.24290042618512
  H   -4.10829454221117     -1.08723374273544      1.47174934253352
  C   -6.36409238806399     -1.41665668684134     -1.02414358567344
  H   -6.15005571359228     -0.65645194901296     -3.01797970369111
  O   -7.59456946864918     -1.96782911067205     -1.18581507286117
  H   -7.90842254043962     -1.82972797469626     -2.08840298863544
  O   -6.44134875702934     -2.15613389399153      1.26552298093489
  C   -6.42144009792131     -3.58643107444387      1.17055239039866
  H   -5.39255460722506     -3.95328702358277      1.22626044742665
  H   -6.99056207160486     -3.96011499451021      2.01948476912445
  H   -6.88574385705366     -3.92090996164074      0.24066384784670
  C   2.61889460609390      0.25806686018019     -0.11298475422231
  H   1.66092709220769     -0.24228272354234     -0.24039304292301
  C   2.63085587623705      1.59670596134508      0.02021426006707
  H   3.54698407373604      2.16743306696746      0.13571901616590
  C   1.41512107782531      2.39183831332448     -0.03074222372446
  O   1.46136967292523      3.62784445156813     -0.03836493046917
  C   3.77325966702181     -0.63496557451423     -0.11394921260661
  C   3.55716132492872     -2.01095215753130     -0.23045787658173
  C   5.09416854795238     -0.17231602809260     -0.00400406594103
  C   4.61950654464541     -2.90514804053269     -0.22840200812304
  H   2.54336267104122     -2.38907031022394     -0.31805983601213
  C   6.15685693452239     -1.05267612238572     -0.00416098074328
  H   5.31963564520568      0.88500039997345      0.08772277673348
  C   5.92362257356433     -2.43537712178750     -0.11146959159891
  H   4.44154136004728     -3.97338168644665     -0.31003496169424
  O   7.00766034911995     -3.24922439716241     -0.08708968270661
  H   6.73804736224116     -4.17282882845257     -0.16950396824088
  O   7.43743746111179     -0.58153924862481      0.14927527650914
  C   8.18829066489380     -0.56845289868716     -1.07239040142546
  H   7.71308782304864      0.09660675507454     -1.79903230478632
  H   9.17793911383740     -0.19162105380610     -0.82199046671380
  H   8.27209000554040     -1.57465578549860     -1.48792983863415
  C   0.07082254748316      1.76764967706862     -0.11753775511972
  H   -0.56073048008281      2.13513875694275     -0.91806775837368
  H   0.01822369604732      4.57301681838287      0.12909914795383
  O   -0.85116801259867      5.01845873690338      0.29975155765789
  O   -2.57761434720024      4.59213325973428      1.42782279259645
  N   -1.50525388971819      4.18362424809266      1.14805767944870
