50
Coordinates from ORCA-job CURCUMIN-OPT-FREQ-Reag-1-wB97XM-V-6-311+G-D-298-cont
  C   2.04315988694826      1.10715325905982      1.25957700313987
  H   1.76204767594299      2.14247742532488      1.43213173919226
  C   1.30562819614254      0.11553890161983      1.81034280638918
  H   1.56628748356956     -0.93273883939867      1.69498050608889
  C   0.11415442168420      0.34676752386715      2.63840405960442
  O   -0.41682851040168     -0.58465791181162      3.22512370358799
  C   3.20345724666945      0.92570500510325      0.43111979009944
  C   3.91296031664392      2.01717575796165     -0.03296211723230
  C   3.63470039581237     -0.45115524325675      0.03227857752710
  C   5.04680961072342      1.87995662067502     -0.83120018238966
  H   3.57894262729189      3.01289259778476      0.24075533015961
  C   4.90750878760822     -0.52847329235458     -0.73832464172439
  H   3.65818083552173     -1.15389461607836      0.86915898648632
  C   5.54354746571823      0.59415233483841     -1.17813227452008
  H   5.57076552668005      2.76019315767827     -1.18961682994148
  O   6.66086699513754      0.44228377457510     -1.93963563138337
  H   7.04350120692926      1.29987457656726     -2.16233505602100
  O   5.30433184681716     -1.79197750032358     -1.04590726143674
  C   6.56245863280165     -2.20079184795216     -0.47459169197100
  H   6.51457970099728     -2.12886043097109      0.61451711453487
  H   6.70246391978902     -3.23775943821310     -0.77060757689998
  H   7.37673367648883     -1.58731419586988     -0.85869169533693
  C   -2.81326793097822      0.67963428020925      1.26209178501906
  H   -2.55839900616543      0.30662351274863      2.25092821443011
  C   -2.08620534479212      1.67638102243744      0.73151213376393
  H   -2.30301264978553      2.08734991205840     -0.25038337927118
  C   -0.95292179277728      2.31438843223747      1.41464024049111
  O   -0.39821257514106      3.28416354160315      0.91873875167746
  C   -3.95431672595734      0.00596297643454      0.63736076975823
  C   -4.54742724132127     -1.06949945468988      1.30314694731204
  C   -4.47874696838600      0.39176989929125     -0.60532863723241
  C   -5.62292126598381     -1.75179878481063      0.74734965774406
  H   -4.15824095328751     -1.38333879283471      2.26680993164572
  C   -5.54833301351421     -0.27841282931687     -1.16506401302942
  H   -4.06129874533645      1.22295555452387     -1.16394850903010
  C   -6.12802344030612     -1.36584976619810     -0.48944850297675
  H   -6.07041313863898     -2.59364091531439      1.26806870748822
  O   -7.16562809040431     -1.99309821279153     -1.10092372545069
  H   -7.48938792308564     -2.72159256031950     -0.55612820491319
  O   -6.01413508940931      0.08883943278860     -2.40445958653508
  C   -7.24082629043731      0.82892187512405     -2.35296023555849
  H   -7.09453897679244      1.76262326143485     -1.80247135080618
  H   -7.51224003671652      1.04904390225047     -3.38357395625837
  H   -8.03065507797294      0.23980540515111     -1.88245685651781
  C   -0.46212382855492      1.75494135873430      2.74875462632417
  H   -1.28157004818079      1.71683015241801      3.46861109515810
  H   0.29675811118740      2.44142517159404      3.12955418706804
  O   2.11583862549555     -2.17536667155151     -0.60166662144627
  O   2.17673943325347     -0.42013578935864     -1.85016717466088
  N   2.53082503847319     -1.07248653267929     -0.89016395214644
